.MODEL BZ D
+RS=100         BV=5.45         IBV=500E-6
