.MODEL DN NPN
+BF=200         BR=45           XTB=1.80        EG=1.11
+VAF=175        VAR=12          IS=1.79E-15     XTI=3.00
+IKF=3.01E-02   IKR=6.38E-3     ISC=1.00E-16    NC=2.00
+TF=1.20E-10    TR=6.00E-08     ISE=4.01E-16    NE=1.50
+RC=93          RB=98           RBM=10.5        RE=0.4
+CJC=9.87E-13   VJC=0.4920      MJC=0.3200      XCJC=0.2919
+CJE=1.50E-12   VJE=0.5800      MJE=0.2900      KF=5.00E-15
+CJS=2.75E-13   VJS=1.00        MJS=0.00        AF=0.82
