.MODEL MN NPN
+BF=200         BR=45           XTB=1.80        EG=1.11
+VAF=175        VAR=12          IS=1.79E-15     XTI=3.00
+IKF=3.01E-02   IKR=6.38E-3     ISC=1.00E-16    NC=2.00
+TF=1.20E-10    TR=6.00E-08     ISE=4.01E-16    NE=1.50
+RC=78          RB=89           RBM=10.0        RE=0.4
+CJC=1.02E-12   VJC=0.4920      MJC=0.3200      XCJC=0.2832
+CJE=1.52E-12   VJE=0.5800      MJE=0.2900      KF=5.00E-15
+CJS=3.72E-13   VJS=1.00        MJS=0.00        AF=0.82
