.MODEL SN NPN
+BF=200         BR=45           XTB=1.80        EG=1.11
+VAF=175        VAR=12          IS=4.48E-16     XTI=3.00
+IKF=7.52E-03   IKR=1.60E-3     ISC=1.00E-16    NC=2.00
+TF=1.20E-10    TR=6.00E-08     ISE=1.00E-16    NE=1.50
+RC=248         RB=389          RBM=38.3        RE=1.6
+CJC=3.51E-13   VJC=0.4920      MJC=0.3200      XCJC=0.2360
+CJE=5.52E-13   VJE=0.5800      MJE=0.2900      KF=5.00E-15
+CJS=1.46E-13   VJS=1.00        MJS=0.00        AF=0.82
