.MODEL SP PNP
+BF=150         BR=3            XTB=1.90        EG=1.17
+VAF=55         VAR=10          IS=3.18E-16     XTI=3.00
+IKF=5.28E-03   IKR=1.79E-3     ISC=1.00E-16    NC=2.00
+TF=2.70E-10    TR=6.00E-08     ISE=1.00E-16    NE=1.50
+RC=355         RB=380          RBM=28.7        RE=3.3
+CJC=5.19E-13   VJC=0.5535      MJC=0.2995      XCJC=0.2360
+CJE=5.67E-13   VJE=0.6840      MJE=0.3440      KF=5.00E-16
+CJS=1.46E-13   VJS=1.00        MJS=0.00        AF=1.00
